 CRYSTAL
 PRIMVEC
     4.59830000    0.00000000    0.00000000
     0.00000000    4.59830000    0.00000000
     0.00000000    0.00000000    2.85140000
 PRIMCOORD
   6 1
    23   0.00000000    0.00000000    0.00000000
    23   2.29915000    2.29915000    1.42570000
     8   3.21835017    3.21835017    0.00000000
     8   0.91920017    3.67909983    1.42570000
     8   3.67909983    0.91920017    1.42570000
     8   1.37994983    1.37994983    0.00000000
